
*** ChampSim Multicore Out-of-Order Simulator ***

bin/champsim: unrecognized option '--help'
