
*** ChampSim Multicore Out-of-Order Simulator ***

Warmup Instructions: 2000000
Simulation Instructions: 10000000
Number of CPUs: 1
Off-chip DRAM Size: 16 GiB Channels: 2 Width: 64-bit Data Rate: 4800 MT/s

VirtualMemory physical capacity: 419418112 num_ppages: 102397
VirtualMemory page size: 2097152 log2_page_size: 21
LLC size: 4 MB
LLC Latency: 19 cycles

CPU 0 runs ../NAS_cg_A_out/champsim.trace_1423000000.champsim.trace
ChampSim does not support traces other than gz or xz compression!
champsim: src/tracereader.cc:65: tracereader::tracereader(uint8_t, std::string): Assertion `0' failed.
